Version 4
SHEET 1 2992 1448
WIRE 1344 48 928 48
WIRE 1520 48 1344 48
WIRE 1344 128 1344 48
WIRE 1520 256 1520 48
WIRE 928 272 928 48
WIRE 1344 304 1344 208
WIRE 1456 304 1344 304
WIRE 1344 400 1344 304
WIRE 1520 416 1520 352
WIRE 1344 528 1344 480
WIRE 1520 528 1520 496
WIRE 928 544 928 352
FLAG 1344 528 0
FLAG 928 544 0
FLAG 1520 528 0
SYMBOL npn 1456 256 R0
SYMATTR InstName Q2
SYMATTR Value Qmmbt3904lt1g
SYMBOL res 1504 400 R0
SYMATTR InstName R4
SYMATTR Value 67
SYMBOL res 1328 112 R0
SYMATTR InstName R5
SYMATTR Value 6.7k
SYMBOL res 1328 384 R0
SYMATTR InstName R6
SYMATTR Value 3.3k
SYMBOL voltage 928 256 R0
WINDOW 123 0 0 Left 0
WINDOW 39 0 0 Left 0
SYMATTR InstName V2
SYMATTR Value 10
TEXT 1112 680 Left 2 !.op
TEXT 2296 48 Left 2 !.MODEL Qmmbt3904lt1g npn\n+IS=2.04959e-14 BF=363.202 NF=1.04474 VAF=10\n+IKF=0.0238161 ISE=4.06917e-14 NE=1.46344 BR=1.88131\n+NR=1.02127 VAR=87.0198 IKR=0.238161 ISC=4.06917e-14\n+NC=3.87411 RB=10.62 IRB=24.2417 RBM=10.62\n+RE=0.0189075 RC=0.833881 XTB=0.794336 XTI=1\n+EG=1.206 CJE=5.01193e-12 VJE=0.4 MJE=0.308747\n+TF=4.90228e-10 XTF=9.95281 VTF=0.230247 ITF=0.212393\n+CJC=3.75788e-12 VJC=0.4 MJC=0.236094 XCJC=1\n+FC=0.8 CJS=0 VJS=0.75 MJS=0.5\n+TR=1e-07 PTF=0 KF=0 AF=1
